line_constants/LineConstants.dss
new circuit.test

!OVERHEAD LINE CODES
new LineSpacing.500 nconds=4 nphases=3 units=ft x=[-4 -1 3 0] h=[28 28 28 24]
new LineSpacing.500x nconds=3 nphases=3 units=ft x=[-4 -1 3] h=[28 28 28]
new LineSpacing.505 nconds=3 nphases=2 units=ft x=[-4 3 0] h=[28 28 24]
new LineSpacing.510 nconds=2 nphases=1 units=ft x=[0.5 0] h=[29 24]
new LineSpacing.k47 nconds=4 nphases=3 units=ft x=[0.0 2.5 7.0 4.0] h=[29 29 29 25]

new WireData.ACSR_556_5 DIAM=0.927 GMRac=0.37320 Rdc=0.1613 Rac=0.186 Runits=mi Radunits=in gmrunits=in // Dove
new WireData.ACSR_336_4 DIAM=0.720 GMRac=0.29280 Rdc=0.2668 Rac=0.306 Runits=mi Radunits=in gmrunits=in // Linnet
new WireData.ACSR_4/0   DIAM=0.563 GMRac=0.09768 Rdc=0.4199 Rac=0.592 Runits=mi Radunits=in gmrunits=in // Penguin
new WireData.ACSR_1/0   DIAM=0.398 GMRac=0.05352 Rdc=0.8144 Rac=1.120 Runits=mi Radunits=in gmrunits=in // Raven

// example 4.1 of Kersting's book, differs from the use in IEEE 13-bus test case
//set earthmodel=carson // as Kersting does, other choices are Deri (Python code) and fullcarson (EMT programs)
set earthmodel=deri
new LineGeometry.k47 nconds=4 nphases=3 spacing=k47 wires=[ACSR_336_4 ACSR_336_4 ACSR_336_4 ACSR_4/0] reduce=no linetype=OH

!CABLE CODES
new WireData.CU_1/0 NormAmps=311 DIAM=0.368  GMRac=0.13356 Rdc=0.5506 Rac=0.607 Runits=mi Radunits=in gmrunits=in // 7 strands
new TSData.TS_1/0   NormAmps=165 DIAM=0.368  GMRac=0.13320 Rac=0.97  Runits=mi Radunits=in gmrunits=in // 1/0 AA
~                   EpsR=2.3 Ins=0.220 DiaIns=0.82 DiaCable=1.06 DiaShield=0.88 TapeLayer=0.005 TapeLap=20
new CNData.CN_250   NormAmps=260 DIAM=0.567  GMRac=0.20520 Rac=0.41  Runits=mi Radunits=in gmrunits=in
//~                   EpsR=2.3 Ins=0.220 DiaIns=1.06 DiaCable=1.29 k=13 DiaStrand=0.0641 GmrStrand=0.02496 Rstrand=14.8722
~                   EpsR=2.3 Ins=0.220 DiaIns=0.80 DiaCable=1.29 k=13 DiaStrand=0.0641 GmrStrand=0.02496 Rstrand=14.8722
new LineSpacing.515  nconds=3 nphases=3 units=ft x=[-0.5 0.0 0.5] h=[-4 -4 -4]
new LineSpacing.515x nconds=4 nphases=3 units=ft x=[-0.5 0.0 0.5 0.25] h=[-4 -4 -4]
new LineSpacing.520  nconds=2 nphases=1 units=ft x=[0.0 0.25] h=[-4 -4]
new LineSpacing.520x nconds=4 nphases=3 units=ft x=[0.0 0.25 0.75 0.50] h=[-4 -4 -4 -4]

new LineGeometry.ohd601 nconds=4 nphases=3 spacing=500 wires=[ACSR_556_5 ACSR_556_5 ACSR_556_5 ACSR_4/0] reduce=yes linetype=OH
new LineGeometry.ohd601d nconds=3 nphases=3 spacing=500x wires=[ACSR_556_5 ACSR_556_5 ACSR_556_5] reduce=yes linetype=OH
new LineGeometry.ohd603 nconds=3 nphases=2 spacing=505 wires=[ACSR_1/0 ACSR_1/0 ACSR_1/0] reduce=yes linetype=OH
new LineGeometry.ohd605 nconds=2 nphases=1 spacing=510 wires=[ACSR_1/0 ACSR_1/0] reduce=yes linetype=OH

new LineGeometry.ts3 nconds=4 nphases=3 spacing=520x tscables=[TS_1/0 TS_1/0 TS_1/0] wires=[CU_1/0] reduce=yes linetype=UG_TS
new LineGeometry.cn3n nconds=4 nphases=3 spacing=515x cncables=[CN_250 CN_250 CN_250] wires=[CU_1/0] reduce=yes linetype=UG_CN
new LineGeometry.ts1 nconds=2 nphases=1 spacing=520 tscables=[TS_1/0] wires=[CU_1/0] reduce=yes linetype=UG_TS
new LineGeometry.cn3 nconds=3 nphases=3 spacing=515 cncables=[CN_250 CN_250 CN_250] reduce=yes linetype=UG_CN

show lineconstants 60 mi 100
